Circuit: * C:\Users\ledererr8484\Desktop\digital_electronics-github\robert_lederer_digital_electronics-2022\LTSpice Files\AND.asc

Direct Newton iteration for .op point succeeded.

Date: Thu Feb 10 10:44:03 2022
Total elapsed time: 0.147 seconds.

tnom = 27
temp = 27
method = modified trap
totiter = 22010
traniter = 21985
tranpoints = 9174
accept = 7677
rejected = 1497
matrix size = 10
fillins = 0
solver = Normal
Matrix Compiler1:      23 opcodes  0.1/[0.0]/0.0
Matrix Compiler2: off  [0.0]/0.1/0.0

