Circuit: * C:\Users\ledererr8484\Desktop\digital_electronics-github\robert_lederer_digital_electronics-2022\LTSpice Files\CommonEmitterAmp1.asc

WARNING: Node VOUT is floating.

WARNING: Less than two connections to node VOUT.  This node is used by C3.
Direct Newton iteration for .op point succeeded.

Date: Fri Feb 11 09:58:20 2022
Total elapsed time: 0.032 seconds.

tnom = 27
temp = 27
method = trap
totiter = 5
traniter = 0
tranpoints = 0
accept = 0
rejected = 0
matrix size = 8
fillins = 0
solver = Normal
Matrix Compiler1:      20 opcodes
Matrix Compiler2: 594 bytes object code size
