Circuit: * C:\Users\ledererr8484\Desktop\digital_electronics-github\robert_lederer_digital_electronics-2022\LTSpice Files\Draft2.asc

Direct Newton iteration failed to find .op point.  (Use ".option noopiter" to skip.)
Starting Gmin stepping
Gmin = 10
Gmin = 1.07374
Gmin = 0.115292
Gmin = 0.0123794
Gmin = 0.00132923
Gmin = 0.000142725
Gmin = 1.5325e-005
Gmin = 1.6455e-006
Gmin = 1.76685e-007
Gmin = 1.89714e-008
Gmin = 2.03704e-009
Gmin = 2.18725e-010
Gmin = 2.34854e-011
Gmin = 2.52173e-012
Gmin = 2.70769e-013
Gmin = 0
Gmin stepping succeeded in finding the operating point.


Date: Tue Apr 12 10:01:00 2022
Total elapsed time: 0.422 seconds.

tnom = 27
temp = 27
method = modified trap
totiter = 84209
traniter = 83815
tranpoints = 17895
accept = 13847
rejected = 4048
matrix size = 15
fillins = 0
solver = Normal
Matrix Compiler1: 434 bytes object code size  0.1/0.1/[0.0]
Matrix Compiler2: 843 bytes object code size  0.1/0.2/[0.1]

