Circuit: * C:\Users\ledererr8484\Desktop\digital_electronics-github\robert_lederer_digital_electronics-2022\LTSpice Files\Draft2.asc

V1: both pins shorted together -- ignoring.
Error on line 8 : v2 n001 0 v
	 Unknown parameter "v"
V2: Missing value, assumed 0V @ DC
No AC stimulus found:
     Set the value of a current or voltage source to "AC 1."
     to make it behave as a signal generator for AC analysis.
.OP point found by inspection.

Date: Wed Feb 09 10:56:25 2022
Total elapsed time: 0.031 seconds.

tnom = 27
temp = 27
method = trap
totiter = 0
traniter = 0
tranpoints = 0
accept = 0
rejected = 0
matrix size = 4
fillins = 0
solver = Normal

