Circuit: * C:\Users\ledererr8484\Desktop\digital_electronics-github\robert_lederer_digital_electronics-2022\LTSpice Files\Draft4.asc

Direct Newton iteration for .op point succeeded.

Date: Thu Feb 10 10:14:58 2022
Total elapsed time: 0.160 seconds.

tnom = 27
temp = 27
method = modified trap
totiter = 22010
traniter = 21985
tranpoints = 9174
accept = 7677
rejected = 1497
matrix size = 10
fillins = 0
solver = Normal
Matrix Compiler1: 390 bytes object code size  0.1/0.1/[0.0]
Matrix Compiler2: 726 bytes object code size  0.1/0.1/[0.0]

