Circuit: * C:\Users\ledererr8484\Desktop\digital_electronics-github\robert_lederer_digital_electronics-2022\LTSpice Files\NAND.asc

Direct Newton iteration for .op point succeeded.

Date: Thu Feb 10 10:31:53 2022
Total elapsed time: 0.126 seconds.

tnom = 27
temp = 27
method = modified trap
totiter = 22667
traniter = 22648
tranpoints = 8796
accept = 7246
rejected = 1550
matrix size = 10
fillins = 0
solver = Normal
Matrix Compiler1: 372 bytes object code size  0.1/0.1/[0.0]
Matrix Compiler2: off  [0.1]/0.1/0.1

