Circuit: * C:\Users\ledererr8484\Desktop\digital_electronics-github\robert_lederer_digital_electronics-2022\LTSpice Files\OR.asc

Direct Newton iteration for .op point succeeded.

Date: Thu Feb 10 10:38:16 2022
Total elapsed time: 0.397 seconds.

tnom = 27
temp = 27
method = modified trap
totiter = 17940
traniter = 17930
tranpoints = 8432
accept = 7133
rejected = 1299
matrix size = 9
fillins = 0
solver = Normal
Matrix Compiler1: 296 bytes object code size  0.1/0.1/[0.0]
Matrix Compiler2: off  [0.1]/0.1/0.1

